LTspice 24.1.8 for Windows
Circuit: E:\Documents Alt\ECE4063\Project\4063_Project.net
Start Time: Mon May 26 23:16:15 2025
solver = Normal
Maximum thread count: 4
tnom = 27
temp = 27
method = modified trap
Direct Newton iteration for .op point succeeded.
.step t=0
.step t=3.92156862745098e-07
.step t=7.84313725490196e-07
.step t=1.17647058823529e-06
.step t=1.56862745098039e-06
.step t=1.96078431372549e-06
.step t=2.35294117647059e-06
.step t=2.74509803921569e-06
.step t=3.13725490196078e-06
.step t=3.52941176470588e-06
.step t=3.92156862745098e-06
.step t=4.31372549019608e-06
.step t=4.70588235294118e-06
.step t=5.09803921568628e-06
.step t=5.49019607843137e-06
.step t=5.88235294117647e-06
.step t=6.27450980392157e-06
.step t=6.66666666666667e-06
.step t=7.05882352941177e-06
.step t=7.45098039215686e-06
.step t=7.84313725490196e-06
.step t=8.23529411764706e-06
.step t=8.62745098039216e-06
.step t=9.01960784313726e-06
.step t=9.41176470588235e-06
.step t=9.80392156862745e-06
.step t=1.01960784313726e-05
.step t=1.05882352941176e-05
.step t=1.09803921568627e-05
.step t=1.13725490196078e-05
.step t=1.17647058823529e-05
.step t=1.2156862745098e-05
.step t=1.25490196078431e-05
.step t=1.29411764705882e-05
.step t=1.33333333333333e-05
.step t=1.37254901960784e-05
.step t=1.41176470588235e-05
.step t=1.45098039215686e-05
.step t=1.49019607843137e-05
.step t=1.52941176470588e-05
.step t=1.56862745098039e-05
.step t=1.6078431372549e-05
.step t=1.64705882352941e-05
.step t=1.68627450980392e-05
.step t=1.72549019607843e-05
.step t=1.76470588235294e-05
.step t=1.80392156862745e-05
.step t=1.84313725490196e-05
.step t=1.88235294117647e-05
.step t=1.92156862745098e-05
.step t=1.96078431372549e-05
.step t=2e-05
.step t=2.03921568627451e-05
.step t=2.07843137254902e-05
.step t=2.11764705882353e-05
.step t=2.15686274509804e-05
.step t=2.19607843137255e-05
.step t=2.23529411764706e-05
.step t=2.27450980392157e-05
.step t=2.31372549019608e-05
.step t=2.35294117647059e-05
.step t=2.3921568627451e-05
.step t=2.43137254901961e-05
.step t=2.47058823529412e-05
.step t=2.50980392156863e-05
.step t=2.54901960784314e-05
.step t=2.58823529411765e-05
.step t=2.62745098039216e-05
.step t=2.66666666666667e-05
.step t=2.70588235294118e-05
.step t=2.74509803921569e-05
.step t=2.7843137254902e-05
.step t=2.82352941176471e-05
.step t=2.86274509803922e-05
.step t=2.90196078431373e-05
.step t=2.94117647058824e-05
.step t=2.98039215686275e-05
.step t=3.01960784313726e-05
.step t=3.05882352941177e-05
.step t=3.09803921568627e-05
.step t=3.13725490196078e-05
.step t=3.17647058823529e-05
.step t=3.2156862745098e-05
.step t=3.25490196078431e-05
.step t=3.29411764705882e-05
.step t=3.33333333333333e-05
.step t=3.37254901960784e-05
.step t=3.41176470588235e-05
.step t=3.45098039215686e-05
.step t=3.49019607843137e-05
.step t=3.52941176470588e-05
.step t=3.56862745098039e-05
.step t=3.6078431372549e-05
.step t=3.64705882352941e-05
.step t=3.68627450980392e-05
.step t=3.72549019607843e-05
.step t=3.76470588235294e-05
.step t=3.80392156862745e-05
.step t=3.84313725490196e-05
.step t=3.88235294117647e-05
.step t=3.92156862745098e-05
.step t=3.96078431372549e-05
.step t=4e-05
.step t=4.03921568627451e-05
.step t=4.07843137254902e-05
.step t=4.11764705882353e-05
.step t=4.15686274509804e-05
.step t=4.19607843137255e-05
.step t=4.23529411764706e-05
.step t=4.27450980392157e-05
.step t=4.31372549019608e-05
.step t=4.35294117647059e-05
.step t=4.3921568627451e-05
.step t=4.43137254901961e-05
.step t=4.47058823529412e-05
.step t=4.50980392156863e-05
.step t=4.54901960784314e-05
.step t=4.58823529411765e-05
.step t=4.62745098039216e-05
.step t=4.66666666666667e-05
.step t=4.70588235294118e-05
.step t=4.74509803921569e-05
.step t=4.7843137254902e-05
.step t=4.82352941176471e-05
.step t=4.86274509803922e-05
.step t=4.90196078431373e-05
.step t=4.94117647058824e-05
.step t=4.98039215686275e-05
.step t=5.01960784313726e-05
.step t=5.05882352941176e-05
.step t=5.09803921568628e-05
.step t=5.13725490196078e-05
.step t=5.17647058823529e-05
.step t=5.2156862745098e-05
.step t=5.25490196078431e-05
.step t=5.29411764705882e-05
.step t=5.33333333333333e-05
.step t=5.37254901960784e-05
.step t=5.41176470588235e-05
.step t=5.45098039215686e-05
.step t=5.49019607843137e-05
.step t=5.52941176470588e-05
.step t=5.56862745098039e-05
.step t=5.6078431372549e-05
.step t=5.64705882352941e-05
.step t=5.68627450980392e-05
.step t=5.72549019607843e-05
.step t=5.76470588235294e-05
.step t=5.80392156862745e-05
.step t=5.84313725490196e-05
.step t=5.88235294117647e-05
.step t=5.92156862745098e-05
.step t=5.96078431372549e-05
.step t=6e-05
.step t=6.03921568627451e-05
.step t=6.07843137254902e-05
.step t=6.11764705882353e-05
.step t=6.15686274509804e-05
.step t=6.19607843137255e-05
.step t=6.23529411764706e-05
.step t=6.27450980392157e-05
.step t=6.31372549019608e-05
.step t=6.35294117647059e-05
.step t=6.3921568627451e-05
.step t=6.43137254901961e-05
.step t=6.47058823529412e-05
.step t=6.50980392156863e-05
.step t=6.54901960784314e-05
.step t=6.58823529411765e-05
.step t=6.62745098039216e-05
.step t=6.66666666666667e-05
.step t=6.70588235294118e-05
.step t=6.74509803921569e-05
.step t=6.7843137254902e-05
.step t=6.82352941176471e-05
.step t=6.86274509803922e-05
.step t=6.90196078431373e-05
.step t=6.94117647058824e-05
.step t=6.98039215686275e-05
.step t=7.01960784313726e-05
.step t=7.05882352941177e-05
.step t=7.09803921568628e-05
.step t=7.13725490196078e-05
.step t=7.17647058823529e-05
.step t=7.21568627450981e-05
.step t=7.25490196078431e-05
.step t=7.29411764705882e-05
.step t=7.33333333333333e-05
.step t=7.37254901960784e-05
.step t=7.41176470588235e-05
.step t=7.45098039215686e-05
.step t=7.49019607843137e-05
.step t=7.52941176470588e-05
.step t=7.56862745098039e-05
.step t=7.6078431372549e-05
.step t=7.64705882352941e-05
.step t=7.68627450980392e-05
.step t=7.72549019607843e-05
.step t=7.76470588235294e-05
.step t=7.80392156862745e-05
.step t=7.84313725490196e-05
.step t=7.88235294117647e-05
.step t=7.92156862745098e-05
.step t=7.96078431372549e-05
.step t=8e-05
.step t=8.03921568627451e-05
.step t=8.07843137254902e-05
.step t=8.11764705882353e-05
.step t=8.15686274509804e-05
.step t=8.19607843137255e-05
.step t=8.23529411764706e-05
.step t=8.27450980392157e-05
.step t=8.31372549019608e-05
.step t=8.35294117647059e-05
.step t=8.3921568627451e-05
.step t=8.43137254901961e-05
.step t=8.47058823529412e-05
.step t=8.50980392156863e-05
.step t=8.54901960784314e-05
.step t=8.58823529411765e-05
.step t=8.62745098039216e-05
.step t=8.66666666666667e-05
.step t=8.70588235294118e-05
.step t=8.74509803921569e-05
.step t=8.7843137254902e-05
.step t=8.82352941176471e-05
.step t=8.86274509803922e-05
.step t=8.90196078431373e-05
.step t=8.94117647058824e-05
.step t=8.98039215686275e-05
.step t=9.01960784313726e-05
.step t=9.05882352941177e-05
.step t=9.09803921568628e-05
.step t=9.13725490196079e-05
.step t=9.17647058823529e-05
.step t=9.2156862745098e-05
.step t=9.25490196078432e-05
.step t=9.29411764705882e-05
.step t=9.33333333333333e-05
.step t=9.37254901960784e-05
.step t=9.41176470588235e-05
.step t=9.45098039215686e-05
.step t=9.49019607843137e-05
.step t=9.52941176470588e-05
.step t=9.56862745098039e-05
.step t=9.6078431372549e-05
.step t=9.64705882352941e-05
.step t=9.68627450980392e-05
.step t=9.72549019607843e-05
.step t=9.76470588235294e-05
.step t=9.80392156862745e-05
.step t=9.84313725490196e-05
.step t=9.88235294117647e-05
.step t=9.92156862745098e-05
.step t=9.96078431372549e-05
.step t=0.0001
Total elapsed time: 18.832 seconds.

Files loaded:
E:\Documents Alt\ECE4063\Project\4063_Project.net


Measurement: result
  step	V(shifted_noise)	at
     1	0.343854933977	0
     2	0.523285777627	3.92156862745e-07
     3	0.649644878043	7.8431372549e-07
     4	0.721379346079	1.17647058824e-06
     5	0.745329578971	1.56862745098e-06
     6	0.73475969716	1.96078431373e-06
     7	0.707552928429	2.35294117647e-06
     8	0.683803596907	2.74509803922e-06
     9	0.683061198086	3.13725490196e-06
    10	0.721712488395	3.52941176471e-06
    11	0.810742300362	3.92156862745e-06
    12	0.95424281807	4.3137254902e-06
    13	1.14885089033	4.70588235294e-06
    14	1.38419158638	5.09803921569e-06
    15	1.64426895149	5.49019607843e-06
    16	1.90961638991	5.88235294118e-06
    17	2.15991532863	6.27450980392e-06
    18	2.37672958757	6.66666666667e-06
    19	2.54598721687	7.05882352941e-06
    20	2.65987041201	7.45098039216e-06
    21	2.71785466203	7.8431372549e-06
    22	2.72677467833	8.23529411765e-06
    23	2.69996975732	8.62745098039e-06
    24	2.65535469714	9.01960784314e-06
    25	2.61303743735	9.41176470588e-06
    26	2.59259385746	9.80392156863e-06
    27	2.61041647212	1.01960784314e-05
    28	2.67749234004	1.05882352941e-05
    29	2.79791335022	1.09803921569e-05
    30	2.96831451885	1.13725490196e-05
    31	3.17832274209	1.17647058824e-05
    32	3.4119499935	1.21568627451e-05
    33	3.64974504838	1.25490196078e-05
    34	3.87141328293	1.29411764706e-05
    35	4.05854980841	1.33333333333e-05
    36	4.19711898107	1.37254901961e-05
    37	4.27933981238	1.41176470588e-05
    38	4.30473228081	1.45098039216e-05
    39	4.28017465571	1.49019607843e-05
    40	4.21896647344	1.52941176471e-05
    41	4.13902786854	1.56862745098e-05
    42	4.06047295592	1.60784313725e-05
    43	4.00288762452	1.64705882353e-05
    44	3.98267974873	1.6862745098e-05
    45	4.01085819821	1.72549019608e-05
    46	4.09154068914	1.76470588235e-05
    47	4.22139403771	1.80392156863e-05
    48	4.39008015551	1.8431372549e-05
    49	4.58164654979	1.88235294118e-05
    50	4.7766782164	1.92156862745e-05
    51	4.95491377837	1.96078431373e-05
    52	5.09797940281	2e-05
    53	5.19186651231	2.03921568627e-05
    54	5.22881895127	2.07843137255e-05
    55	5.20837895614	2.11764705882e-05
    56	5.13744498209	2.1568627451e-05
    57	5.02933862247	2.19607843137e-05
    58	4.90200378147	2.23529411765e-05
    59	4.77557894426	2.27450980392e-05
    60	4.6696794641	2.3137254902e-05
    61	4.60074456912	2.35294117647e-05
    62	4.57981623732	2.39215686275e-05
    63	4.611048091	2.43137254902e-05
    64	4.69114219436	2.47058823529e-05
    65	4.80979401409	2.50980392157e-05
    66	4.95108368169	2.54901960784e-05
    67	5.09562450019	2.58823529412e-05
    68	5.22318196099	2.62745098039e-05
    69	5.31540727001	2.66666666667e-05
    70	5.35831419923	2.70588235294e-05
    71	5.34417145108	2.74509803922e-05
    72	5.27254582137	2.78431372549e-05
    73	5.15036446192	2.82352941176e-05
    74	4.9909813766	2.86274509804e-05
    75	4.81235945789	2.90196078431e-05
    76	4.63472618198	2.94117647059e-05
    77	4.47769058263	2.98039215686e-05
    78	4.35775052848	3.01960784314e-05
    79	4.28599110029	3.05882352941e-05
    80	4.26660375751	3.09803921569e-05
    81	4.2963257671	3.13725490196e-05
    82	4.36488059964	3.17647058824e-05
    83	4.45637116139	3.21568627451e-05
    84	4.5514286349	3.25490196078e-05
    85	4.62981842569	3.29411764706e-05
    86	4.6731788716	3.33333333333e-05
    87	4.66756486148	3.37254901961e-05
    88	4.60528310139	3.41176470588e-05
    89	4.48594522435	3.45098039216e-05
    90	4.31652544424	3.49019607843e-05
    91	4.11042075254	3.52941176471e-05
    92	3.88565191359	3.56862745098e-05
    93	3.66242993349	3.60784313725e-05
    94	3.46043665296	3.64705882353e-05
    95	3.29617227596	3.6862745098e-05
    96	3.18073379192	3.72549019608e-05
    97	3.11832373097	3.76470588235e-05
    98	3.10569111012	3.80392156863e-05
    99	3.13257624812	3.8431372549e-05
   100	3.18310630336	3.88235294118e-05
   101	3.23794439926	3.92156862745e-05
   102	3.27691078927	3.96078431373e-05
   103	3.28171317837	4e-05
   104	3.23842716706	4.03921568627e-05
   105	3.13938236325	4.07843137255e-05
   106	2.98420742313	4.11764705882e-05
   107	2.77988779347	4.1568627451e-05
   108	2.53983010725	4.19607843137e-05
   109	2.28206069741	4.23529411765e-05
   110	2.02679946871	4.27450980392e-05
   111	1.79373862827	4.3137254902e-05
   112	1.59939204529	4.35294117647e-05
   113	1.45487456971	4.39215686275e-05
   114	1.36441027081	4.43137254902e-05
   115	1.32477147241	4.47058823529e-05
   116	1.32572407413	4.50980392157e-05
   117	1.35141896825	4.54901960784e-05
   118	1.38254200714	4.58823529412e-05
   119	1.39893226924	4.62745098039e-05
   120	1.38231317341	4.66666666667e-05
   121	1.31877169529	4.70588235294e-05
   122	1.20064635305	4.74509803922e-05
   123	1.027571909	4.78431372549e-05
   124	0.806538776452	4.82352941176e-05
   125	0.55095916826	4.86274509804e-05
   126	0.278870467366	4.90196078431e-05
   127	0.0104877122936	4.94117647059e-05
   128	-0.234473083071	4.98039215686e-05
   129	-0.439490664505	5.01960784314e-05
   130	-0.593437824548	5.05882352941e-05
   131	-0.692078849512	5.09803921569e-05
   132	-0.738631685301	5.13725490196e-05
   133	-0.743323995452	5.17647058824e-05
   134	-0.722002090791	5.21568627451e-05
   135	-0.693981524801	5.25490196078e-05
   136	-0.679428788033	5.29411764706e-05
   137	-0.696627874006	5.33333333333e-05
   138	-0.759501258051	5.37254901961e-05
   139	-0.875719432662	5.41176470588e-05
   140	-1.0456544733	5.45098039216e-05
   141	-1.26231973343	5.49019607843e-05
   142	-1.51230270099	5.52941176471e-05
   143	-1.77756548555	5.56862745098e-05
   144	-2.03787428363	5.60784313725e-05
   145	-2.27351546086	5.64705882353e-05
   146	-2.4679551745	5.6862745098e-05
   147	-2.61005963669	5.72549019608e-05
   148	-2.69559160042	5.76470588235e-05
   149	-2.72774441492	5.80392156863e-05
   150	-2.71680043579	5.8431372549e-05
   151	-2.67865185574	5.88235294118e-05
   152	-2.63264070263	5.92156862745e-05
   153	-2.59895344632	5.96078431373e-05
   154	-2.5958867954	6e-05
   155	-2.63736884547	6.03921568627e-05
   156	-2.73107072419	6.07843137255e-05
   157	-2.87736242886	6.11764705882e-05
   158	-3.06925751401	6.1568627451e-05
   159	-3.29334773812	6.19607843137e-05
   160	-3.53160758188	6.23529411765e-05
   161	-3.76382070307	6.27450980392e-05
   162	-3.97030352992	6.3137254902e-05
   163	-4.13455540419	6.35294117647e-05
   164	-4.24547980741	6.39215686275e-05
   165	-4.29887590776	6.43137254902e-05
   166	-4.29799906682	6.47058823529e-05
   167	-4.25311420115	6.50980392157e-05
   168	-4.18010148076	6.54901960784e-05
   169	-4.09830878103	6.58823529412e-05
   170	-4.02793007279	6.62745098039e-05
   171	-3.98727528888	6.66666666667e-05
   172	-3.99029037283	6.70588235294e-05
   173	-4.04467017338	6.74509803922e-05
   174	-4.1508147685	6.78431372549e-05
   175	-4.30177043052	6.82352941176e-05
   176	-4.48416489373	6.86274509804e-05
   177	-4.6800081891	6.90196078431e-05
   178	-4.86911914714	6.94117647059e-05
   179	-5.03184630734	6.98039215686e-05
   180	-5.15171835359	7.01960784314e-05
   181	-5.21766476296	7.05882352941e-05
   182	-5.22550786829	7.09803921569e-05
   183	-5.1785243019	7.13725490196e-05
   184	-5.08699910447	7.17647058824e-05
   185	-4.9668364995	7.21568627451e-05
   186	-4.83740734357	7.25490196078e-05
   187	-4.71893285047	7.29411764706e-05
   188	-4.62975333889	7.33333333333e-05
   189	-4.58384697492	7.37254901961e-05
   190	-4.58894380754	7.41176470588e-05
   191	-4.64547927034	7.45098039216e-05
   192	-4.746534076	7.49019607843e-05
   193	-4.87876858673	7.52941176471e-05
   194	-5.02419547921	7.56862745098e-05
   195	-5.16274801064	7.60784313725e-05
   196	-5.27471358967	7.64705882353e-05
   197	-5.34367247839	7.6862745098e-05
   198	-5.35857803715	7.72549019608e-05
   199	-5.31527730022	7.76470588235e-05
   200	-5.2170733087	7.80392156863e-05
   201	-5.07428152738	7.8431372549e-05
   202	-4.90283999903	7.88235294118e-05
   203	-4.72215798777	7.92156862745e-05
   204	-4.55249837542	7.96078431373e-05
   205	-4.41224246101	8e-05
   206	-4.31541327326	8.03921568627e-05
   207	-4.26978041354	8.07843137255e-05
   208	-4.27581631121	8.11764705882e-05
   209	-4.32663298238	8.1568627451e-05
   210	-4.40891741547	8.19607843137e-05
   211	-4.50473027728	8.23529411765e-05
   212	-4.59393436541	8.27450980392e-05
   213	-4.65687655195	8.3137254902e-05
   214	-4.67713847479	8.35294117647e-05
   215	-4.64370869751	8.39215686275e-05
   216	-4.55247664346	8.43137254902e-05
   217	-4.4067915784	8.47058823529e-05
   218	-4.21701431685	8.50980392157e-05
   219	-3.99912620191	8.54901960784e-05
   220	-3.77257252031	8.58823529412e-05
   221	-3.55764490512	8.62745098039e-05
   222	-3.3727466471	8.66666666667e-05
   223	-3.23191415965	8.70588235294e-05
   224	-3.14292907256	8.74509803922e-05
   225	-3.10627435282	8.78431372549e-05
   226	-3.11507651184	8.82352941176e-05
   227	-3.15604218378	8.86274509804e-05
   228	-3.21126072896	8.90196078431e-05
   229	-3.26063025171	8.94117647059e-05
   230	-3.28458095008	8.98039215686e-05
   231	-3.26672396818	9.01960784314e-05
   232	-3.19607444198	9.05882352941e-05
   233	-3.0685408096	9.09803921569e-05
   234	-2.88748598527	9.13725490196e-05
   235	-2.66328170662	9.17647058824e-05
   236	-2.4119157223	9.21568627451e-05
   237	-2.15284095054	9.25490196078e-05
   238	-1.90635840588	9.29411764706e-05
   239	-1.69088318342	9.33333333333e-05
   240	-1.52046769162	9.37254901961e-05
   241	-1.40291321519	9.41176470588e-05
   242	-1.33872514697	9.45098039216e-05
   243	-1.32105494372	9.49019607843e-05
   244	-1.33663381017	9.52941176471e-05
   245	-1.36757456643	9.56862745098e-05
   246	-1.39379639584	9.60784313725e-05
   247	-1.39574636572	9.64705882353e-05
   248	-1.35704998651	9.6862745098e-05
   249	-1.26673157416	9.72549019608e-05
   250	-1.12070702215	9.76470588235e-05
   251	-0.922345091171	9.80392156863e-05
   252	-0.682022432409	9.8431372549e-05
   253	-0.415732588018	9.88235294118e-05
   254	-0.142936406174	9.92156862745e-05
   255	0.116056125243	9.96078431373e-05
   256	0.343854933977	0.0001
